/*--------------------------------*- C++ -*----------------------------------*\
| =========                 |                                                 |
| \\      /  F ield         | OpenFOAM: The Open Source CFD Toolbox           |
|  \\    /   O peration     | Version:  v2412                                 |
|   \\  /    A nd           | Website:  www.openfoam.com                      |
|    \\/     M anipulation  |                                                 |
\*---------------------------------------------------------------------------*/
FoamFile
{
    version     2.0;
    format      ascii;
    class       dictionary;
    object      extrudeMeshDict;
}

// * * * * * * * * * * * * * * * * * * * * * * * * * * * * * * * * * * * * * //

constructFrom   surface;

surface         "<constant>/triSurface/channel.vtk";

flipNormals     false;

extrudeModel    polyline;

nLayers         50;

expansionRatio  1.0;

polylineCoeffs
{

vertices 20
(
    (0.0 0.0 0.0)
    (0.0 0.0 0.0009595959595959597)
    (0.0 -3.8371531963399264e-05 0.009760227825367871)
    (0.0 -0.0013810659773547673 0.053537839805951344)
    (0.0 -0.004639393287645177 0.09721466938680835)
    (0.0 -0.0098071030717517 0.1407069320858616)
    (0.0 -0.01687428220429577 0.18393119747238662)
    (0.0 -0.02582737384177336 0.22680454921011692)
    (0.0 -0.03664920342840683 0.2692447441141707)
    (0.0 -0.04931901164178765 0.3111703699166839)
    (0.0 -0.06381249421511437 0.35250100143850904)
    (0.0 -0.0801018485596332 0.3931573548674002)
    (0.0 -0.09815582709784776 0.4330614398467341)
    (0.0 -0.11793979720518855 0.4721367090830178)
    (0.0 -0.13941580764515815 0.510308205185195)
    (0.0 -0.16254266137051065 0.5475027044540702)
    (0.0 -0.18727599455081104 0.5836488573460235)
    (0.0 -0.21356836167477947 0.618677325341565)
    (0.0 -0.2413693265641672 0.6525209139561792)
    (0.0 -0.27062555912457753 0.6851147016383035)
);

edges
(
    line 0 1
    line 1 2
    arc 2 3 (0.0 -0.0007097187546590833 0.03164903381565961)
    arc 3 4 (0.0 -0.0030102296324999722 0.07537625459637985)
    arc 4 5 (0.0 -0.007223248179698438 0.11896080073633497)
    arc 5 6 (0.0 -0.013340692638023734 0.1623190647791241)
    arc 6 7 (0.0 -0.021350828023034563 0.20536787334125178)
    arc 7 8 (0.0 -0.031238288635090095 0.2480246466621438)
    arc 8 9 (0.0 -0.04298410753509724 0.29020755701542733)
    arc 9 10 (0.0 -0.05656575292845101 0.33183568567759647)
    arc 10 11 (0.0 -0.07195717138737379 0.37282917815295463)
    arc 11 12 (0.0 -0.08912883782874048 0.4131093973570672)
    arc 12 13 (0.0 -0.10804781215151815 0.45259907446487596)
    arc 13 14 (0.0 -0.12867780242517335 0.4912224571341064)
    arc 14 15 (0.0 -0.1509792345078344 0.5289054548196326)
    arc 15 16 (0.0 -0.17490932796066083 0.5655757809000468)
    arc 16 17 (0.0 -0.20042217811279525 0.6011630913437942)
    arc 17 18 (0.0 -0.22746884411947332 0.6355991196488722)
    arc 18 19 (0.0 -0.25599744284437237 0.6688178077972413)
);


    toleranceCheck  1e-05;
}

mergeFaces false;

mergeTol 0.1;


// ************************************************************************* //
