/*--------------------------------*- C++ -*----------------------------------*\
| =========                 |                                                 |
| \\      /  F ield         | OpenFOAM: The Open Source CFD Toolbox           |
|  \\    /   O peration     | Version:  v2412                                 |
|   \\  /    A nd           | Website:  www.openfoam.com                      |
|    \\/     M anipulation  |                                                 |
\*---------------------------------------------------------------------------*/
FoamFile
{
    version     2.0;
    format      ascii;
    class       dictionary;
    object      extrudeMeshDict;
}
// * * * * * * * * * * * * * * * * * * * * * * * * * * * * * * * * * * * * * //

constructFrom   surface;

surface         "<constant>/triSurface/channel.vtk";

flipNormals     false;

extrudeModel    polyline;

nLayers         50;

expansionRatio  1.0;

polylineCoeffs
{
/*
vertices 3
    (
    (0.0 0.0 0.0)
    (0.0 0.0 0.9595959595959597)
    (0.0 -0.038371531963399264 9.76022782536787)
    );

    edges
    (
line 0 1
line 1 2 
    );
    */

vertices 20
(
    (0.0 0.0 0.0)        
    (0.0 0.0 0.0009595959595959597)      //2
    (0.0 -3.8371531963399264e-05 0.009760227825367871)
    (0.0 -0.004639393287645177 0.09721466938680835)  //4
    (0.0 -0.01687428220429577 0.18393119747238662)
    (0.0 -0.03664920342840683 0.2692447441141707) //6
    (0.0 -0.06381249421511437 0.35250100143850904)
    (0.0 -0.09815582709784776 0.4330614398467341) //8
    (0.0 -0.13941580764515815 0.510308205185195)
    (0.0 -0.18727599455081104 0.5836488573460235)//10

 (0.0 -0.2413693265641672 0.6525209139561792)
    (0.0 -0.3012809376476324 0.716396164307182)
    (0.0 -0.3665513387704712 0.7747847204400704)
    (0.0 -0.43667994193637816 0.8272387743159951)
    (0.0 -0.5111288994174621 0.8733560322570243)
    (0.0 -0.5893272287498296 0.9127828003168877)
    (0.0 -0.6706751918543288 0.9452166969185712)
    (0.0 -0.7545488946970114 0.9704089719543252)
    (0.0 -0.8403050722124507 0.9881664145618658)
    (0.0 -0.9272860217921948 0.9983528349451838)

);

edges
(
    line 0 1
    line 1 2
    arc 2 3 (0.0 -0.0013810659773547673 0.053537839805951344)
    arc 3 4 (0.0 -0.0098071030717517 0.1407069320858616)
    arc 4 5 (0.0 -0.02582737384177336 0.22680454921011692)
    arc 5 6 (0.0 -0.04931901164178765 0.3111703699166839)
    arc 6 7 (0.0 -0.0801018485596332 0.3931573548674002)
    arc 7 8 (0.0 -0.11793979720518855 0.4721367090830178)
    arc 8 9 (0.0 -0.16254266137051065 0.5475027044540702)
    arc 9 10 (0.0 -0.21356836167477947 0.618677325341565)

    arc 10 11 (0.0 -0.27062555912457753 0.6851147016383035)
    arc 11 12 (0.0 -0.33327665646824395 0.746305295291692)
    arc 12 13 (0.0 -0.40104115432556886 0.8017798081797225)
    arc 13 14 (0.0 -0.4733993363531648 0.8511127813688681)
    arc 14 15 (0.0 -0.5497962551823266 0.8939258581495685)
    arc 15 16 (0.0 -0.6296459885594342 0.9298906858236234)
    arc 16 17 (0.0 -0.7123361330466496 0.9587314339883835)
    arc 17 18 (0.0 -0.7972325008186963 0.9802269100038867)
    arc 18 19 (0.0 -0.8836839835338834 0.9942122554184751)
    //arc 19 20 (0.0 -0.971027545976164 1.00058021034224)
);


    toleranceCheck  1e-5;
}

mergeFaces false;

mergeTol 1e-1;


// ************************************************************************* //
