/*--------------------------------*- C++ -*----------------------------------*\
| =========                 |                                                 |
| \\      /  F ield         | OpenFOAM: The Open Source CFD Toolbox           |
|  \\    /   O peration     | Version:  v2412                                 |
|   \\  /    A nd           | Website:  www.openfoam.com                      |
|    \\/     M anipulation  |                                                 |
\*---------------------------------------------------------------------------*/
FoamFile
{
    version     2.0;
    format      ascii;
    class       dictionary;
    object      extrudeMeshDict;
}

// * * * * * * * * * * * * * * * * * * * * * * * * * * * * * * * * * * * * * //

constructFrom   surface;

surface         "<constant>/triSurface/outlet.vtk";

flipNormals     false;

extrudeModel    polyline;

nLayers         500;

expansionRatio  1.0;

polylineCoeffs
{

vertices 151
(
    (0.0 0.0 0.0)
    (5.959595959595959 0.0 0.0)
    (9.76022782536787 -0.038371531963399264 0.0)
    (97.21466938680835 -4.639393287645177 0.0)
    (183.93119747238663 -16.874282204295767 0.0)
    (269.2447441141707 -36.64920342840683 0.0)
    (352.50100143850904 -63.81249421511437 0.0)
    (433.0614398467341 -98.15582709784776 0.0)
    (510.308205185195 -139.41580764515814 0.0)
    (583.6488573460234 -187.27599455081102 0.0)
    (652.5209139561791 -241.3693265641672 0.0)
    (716.396164307182 -301.2809376476324 0.0)
    (774.7847204400704 -366.5513387704712 0.0)
    (827.2387743159951 -436.67994193637816 0.0)
    (873.3560322570243 -511.1288994174621 0.0)
    (912.7828003168877 -589.3272287498296 0.0)
    (945.2166969185712 -670.6751918543288 0.0)
    (970.4089719543251 -754.5488946970113 0.0)
    (988.1664145618658 -840.3050722124507 0.0)
    (998.3528349451838 -927.2860217921948 0.0)
    (1000.8901088752028 -1014.8246475012137 0.0)
    (995.758776859552 -1102.249576335985 0.0)
    (982.9981933861444 -1188.8903072853363 0.0)
    (962.7062250959499 -1274.0823537035872 0.0)
    (935.0385001998072 -1357.1723395568235 0.0)
    (900.2072148958368 -1437.5230104569043 0.0)
    (858.479505941575 -1514.5181210513315 0.0)
    (810.175401862302 -1587.5671612853992 0.0)
    (755.9225472424534 -1656.2799933206898 0.0)
    (703.94268639172 -1726.5433962354816 0.0)
    (658.2965504184901 -1801.0771603557876 0.0)
    (619.3328233872014 -1879.311933309118 0.0)
    (587.3491434312301 -1960.6500912652825 0.0)
    (562.5898291393232 -2044.4703040962136 0.0)
    (545.2440132421252 -2130.132281624686 0.0)
    (535.4441978552934 -2216.981664706041 0.0)
    (533.2652423154827 -2304.3550237806667 0.0)
    (538.7237913409733 -2391.584926714032 0.0)
    (551.7781478851355 -2478.0050372117967 0.0)
    (572.3285916539865 -2562.955204863964 0.0)
    (600.2181408547289 -2645.786507935975 0.0)
    (635.2337513563909 -2725.866210385621 0.0)
    (677.1079441023523 -2802.5825952398495 0.0)
    (725.5208483431963 -2875.349637410016 0.0)
    (780.1026450819367 -2943.6114802506454 0.0)
    (840.4363920664989 -3006.846681665924 0.0)
    (906.0612087497606 -3064.5721973285517 0.0)
    (976.4757968877149 -3116.347070583735 0.0)
    (1051.142269882423 -3161.7758008516876 0.0)
    (1129.490261617983 -3200.5113647979197 0.0)
    (1210.9212834027135 -3232.25786719303 0.0)
    (1294.8132957355306 -3256.7728012124903 0.0)
    (1380.5254599734594 -3273.868900910322 0.0)
    (1467.4030336030114 -3283.4155717158874 0.0)
    (1554.782371721155 -3285.3398880264526 0.0)
    (1641.9959965203325 -3279.6271502750524 0.0)
    (1728.3776960524574 -3266.320997218304 0.0)
    (1813.267613323204 -3245.5230725864135 0.0)
    (1896.017286841744 -3217.392248641796 0.0)
    (1975.9946041219227 -3182.1434125774153 0.0)
    (2052.588630295816 -3140.045825025384 0.0)
    (2125.214274954597 -3091.421063214919 0.0)
    (2193.316761567412 -3036.640564491566 0.0)
    (2256.375865337044 -2976.122788962398 0.0)
    (2313.9098871199963 -2910.3300229413016 0.0)
    (2365.479333054828 -2839.764847612373 0.0)
    (2410.690271790595 -2764.966299886774 0.0)
    (2449.197343670026 -2686.5057547796923 0.0)
    (2480.7063988807377 -2604.9825607613257 0.0)
    (2504.976744422037 -2521.0194614227835 0.0)
    (2521.8229827230625 -2435.2578384301355 0.0)
    (2531.1164278673386 -2348.3528121049667 0.0)
    (2532.7860886054104 -2260.9682370573782 0.0)
    (2526.819210646471 -2173.7716310990545 0.0)
    (2513.2613740865 -2087.4290761736816 0.0)
    (2492.2161452286664 -2002.6001302557374 0.0)
    (2463.844285455696 -1919.9327890849286 0.0)
    (2428.3625231975084 -1840.0585362228117 0.0)
    (2386.0418983748714 -1763.5875192435037 0.0)
    (2337.2056919656397 -1691.1038889068348 0.0)
    (2282.226956509299 -1623.1613369173074 0.0)
    (2221.52566641393 -1560.2788663552674 0.0)
    (2156.0076804127007 -1502.409868713599 0.0)
    (2093.1448687568745 -1441.6882199056815 0.0)
    (2035.8241909737262 -1375.7094989290779 0.0)
    (1984.4835112215171 -1304.977707450217 0.0)
    (1939.5150133402437 -1230.0331551363236 0.0)
    (1901.2622050174373 -1151.4483323099878 0.0)
    (1870.017293783873 -1069.8235367804753 0.0)
    (1846.0189548835692 -985.7822882577759 0.0)
    (1829.4505080689892 -899.9665653779889 0.0)
    (1820.438517248634 -813.0319017237146 0.0)
    (1819.0518236841112 -725.6423783002168 0.0)
    (1825.3010201219456 -638.4655507190911 0.0)
    (1839.1383698771594 -552.1673498399306 0.0)
    (1860.4581714867302 -467.4069948232336 0.0)
    (1889.0975661473938 -384.8319574529801 0.0)
    (1924.8377817698938 -305.0730161956817 0.0)
    (1967.4058041465346 -228.739437777205 0.0)
    (2016.4764624662296 -156.41432308459116 0.0)
    (2071.674913246113 -88.65015294484328 0.0)
    (2132.5795037053267 -25.964567805806382 0.0)
    (2198.7249927080875 31.16358644245929 0.0)
    (2269.606104671744 82.29791630042905 0.0)
    (2344.6813892920272 127.0478142043512 0.0)
    (2423.3773576016442 165.07144231950792 0.0)
    (2505.092862767462 196.0783437887485 0.0)
    (2589.2036921620297 219.83166148935288 0.0)
    (2675.067335631285 236.1499473494714 0.0)
    (2762.027893534351 244.90854840304087 0.0)
    (2849.421087063635 246.0405589953109 0.0)
    (2936.5793325721497 239.53733186521754 0.0)
    (3022.836841145996 225.44854420053048 0.0)
    (3107.534704467166 203.88181816117935 0.0)
    (3190.025928116474 175.00189876953527 0.0)
    (3269.680373867995 139.02939544760943 0.0)
    (3345.889573221538 96.23909681439136 0.0)
    (3418.0713754032936 46.95787161633234 0.0)
    (3485.6743943292827 -8.437828174540073 0.0)
    (3548.1822205618837 -69.52484302141829 0.0)
    (3605.1173660849686 -135.83653827567423 0.0)
    (3656.044911764043 -206.86636872974327 0.0)
    (3700.575829629037 -282.0717480408607 0.0)
    (3738.3699546012813 -360.8781934676806 0.0)
    (3769.138582964104 -442.6837142587524 0.0)
    (3792.6466777277137 -526.8634101706127 0.0)
    (3808.714664041916 -612.7742449880815 0.0)
    (3817.2198009417652 -699.7599585825734 0.0)
    (3818.097118947599 -787.1560799858975 0.0)
    (3811.339916357256 -874.2950031854701 0.0)
    (3796.9998104393867 -960.5110868676478 0.0)
    (3775.1863431367938 -1045.1457391530248 0.0)
    (3746.066144291772 -1127.5524484821462 0.0)
    (3709.8616587854485 -1207.1017222214484 0.0)
    (3666.849447314322 -1283.1858952641455 0.0)
    (3617.3580737841085 -1355.2237718938807 0.0)
    (3562.7023685781946 -1423.4511114316151 0.0)
    (3511.9589942231173 -1494.6126297001883 0.0)
    (3467.6230428422377 -1569.933112560963 0.0)
    (3430.0331901941627 -1648.837198013644 0.0)
    (3399.4765795895687 -1730.7221494491014 0.0)
    (3376.186628446029 -1814.9624598649557 0.0)
    (3360.3412452469697 -1900.9146300208217 0.0)
    (3352.0614705251464 -1987.9220840335893 0.0)
    (3351.4105522519612 -2075.320184863239 0.0)
    (3358.3934626955865 -2162.4413113766414 0.0)
    (3372.956860438547 -2248.6199582064005 0.0)
    (3394.9894978448983 -2333.1978194476746 0.0)
    (3424.3230708644205 -2415.5288173593744 0.0)
    (3460.733504682306 -2494.984037656227 0.0)
    (3503.9426653934406 -2570.956533691748 0.0)
);

edges
(
    line 0 1
    line 1 2
    arc 2 3 (53.53783980595134 -1.3810659773547673 0.0)
    arc 3 4 (140.7069320858616 -9.8071030717517 0.0)
    arc 4 5 (226.8045492101169 -25.82737384177336 0.0)
    arc 5 6 (311.1703699166839 -49.31901164178765 0.0)
    arc 6 7 (393.1573548674002 -80.1018485596332 0.0)
    arc 7 8 (472.1367090830178 -117.93979720518854 0.0)
    arc 8 9 (547.5027044540702 -162.54266137051064 0.0)
    arc 9 10 (618.677325341565 -213.56836167477945 0.0)
    arc 10 11 (685.1147016383035 -270.62555912457753 0.0)
    arc 11 12 (746.305295291692 -333.2766564682439 0.0)
    arc 12 13 (801.7798081797225 -401.04115432556887 0.0)
    arc 13 14 (851.1127813688681 -473.39933635316476 0.0)
    arc 14 15 (893.9258581495685 -549.7962551823265 0.0)
    arc 15 16 (929.8906858236235 -629.6459885594342 0.0)
    arc 16 17 (958.7314339883834 -712.3361330466496 0.0)
    arc 17 18 (980.2269100038867 -797.2325008186963 0.0)
    arc 18 19 (994.2122554184751 -883.6839835338834 0.0)
    arc 19 20 (1000.5802103422401 -971.027545976164 0.0)
    arc 20 21 (999.2819360712514 -1058.5933111697427 0.0)
    arc 21 22 (990.3273896534937 -1145.7096979662115 0.0)
    arc 22 23 (973.7852475237978 -1231.7085717017471 0.0)
    arc 23 24 (949.782378793443 -1315.9303684216761 0.0)
    arc 24 25 (918.50287223401 -1397.7291533724201 0.0)
    arc 25 26 (880.1866244179826 -1476.4775749649855 0.0)
    arc 26 27 (835.1274998442785 -1551.5716762158233 0.0)
    arc 27 28 (783.6710771595369 -1622.4355267639617 0.0)
    arc 28 29 (729.1646176918823 -1690.8435400061055 0.0)
    arc 29 30 (680.3049430084125 -1763.311352951257 0.0)
    arc 30 31 (637.9595584192227 -1839.7686621324046 0.0)
    arc 31 32 (602.451934038353 -1919.6314215015564 0.0)
    arc 32 33 (574.0533073434929 -2002.2895712816837 0.0)
    arc 33 34 (552.9806112331075 -2087.1116981228997 0.0)
    arc 34 35 (539.3948169081932 -2173.4498583754157 0.0)
    arc 35 36 (533.3997042371398 -2260.644527635006 0.0)
    arc 36 37 (535.0410689967059 -2348.0296387521407 0.0)
    arc 37 38 (544.3063730448689 -2434.9376698201786 0.0)
    arc 38 39 (561.124840097835 -2520.704743276234 0.0)
    arc 39 40 (585.3679963795738 -2604.6756971634386 0.0)
    arc 40 41 (616.8506520139467 -2686.2090898159922 0.0)
    arc 41 42 (655.3323156627089 -2764.6820997369296 0.0)
    arc 42 43 (700.5190316031848 -2839.495283239189 0.0)
    arc 43 44 (752.0656252124448 -2910.0771535070544 0.0)
    arc 44 45 (809.5783397050709 -2975.888546099201 0.0)
    arc 45 46 (872.6178439828533 -3036.4267375459185 0.0)
    arc 46 47 (940.7025886199083 -3091.229285579153 0.0)
    arc 47 48 (1013.3124843473395 -3139.877561660424 0.0)
    arc 48 49 (1089.8928749380461 -3181.999948822155 0.0)
    arc 49 50 (1169.858774143399 -3217.2746803945906 0.0)
    arc 50 51 (1252.5993343164532 -3245.4322979336707 0.0)
    arc 51 52 (1337.4825125865507 -3266.2577095741362 0.0)
    arc 52 53 (1423.8598989410898 -3279.5918330843897 0.0)
    arc 53 54 (1511.071669333468 -3285.3328110720768 0.0)
    arc 54 55 (1598.4516259811376 -3283.436789057604 0.0)
    arc 55 56 (1685.3322863516846 -3273.918250472004 0.0)
    arc 56 57 (1771.049981962923 -3256.8499060201534 0.0)
    arc 57 58 (1854.9499280480222 -3232.3621382544807 0.0)
    arc 58 59 (1936.3912253592503 -3200.6420056019815 0.0)
    arc 59 60 (2014.7517559022995 -3161.9318134526293 0.0)
    arc 60 61 (2089.4329352033983 -3116.5272632244296 0.0)
    arc 61 62 (2159.8642848073505 -3064.7751935441365 0.0)
    arc 62 63 (2225.5077900778633 -3007.0709307984075 0.0)
    arc 63 64 (2285.862010011583 -2943.8552692941557 0.0)
    arc 64 65 (2340.465907671565 -2875.611104096198 0.0)
    arc 65 66 (2388.9023719800743 -2802.859742263456 0.0)
    arc 66 67 (2430.8014039682603 -2726.156920661634 0.0)
    arc 67 68 (2465.8429431434197 -2646.088560771702 0.0)
    arc 68 69 (2493.7593123836377 -2563.266292922579 0.0)
    arc 69 70 (2514.3372626836394 -2478.3227841377484 0.0)
    arc 70 71 (2527.419602132314 -2391.9069052856667 0.0)
    arc 71 72 (2532.9063966784206 -2304.6787744514177 0.0)
    arc 72 73 (2530.755733511986 -2217.3047143925396 0.0)
    arc 73 74 (2520.984041230044 -2130.452162598277 0.0)
    arc 74 75 (2503.665964341022 -2044.7845728335712 0.0)
    arc 75 76 (2478.933793066408 -1960.9563471141214 0.0)
    arc 76 77 (2446.9764527953603 -1879.6078368264189 0.0)
    arc 77 78 (2408.0380609116787 -1801.3604511784572 0.0)
    arc 78 79 (2362.4160620173043 -1726.8119103469317 0.0)
    arc 79 80 (2310.4589557971076 -1656.531679581436 0.0)
    arc 80 81 (2252.5636348814733 -1591.0566191438643 0.0)
    arc 81 82 (2189.1723530423446 -1530.886883312467 0.0)
    arc 82 83 (2123.9125695658036 -1472.7361528520219 0.0)
    arc 83 84 (2063.7633635412953 -1409.3253908486424 0.0)
    arc 84 85 (2009.3807323512128 -1340.9047715290874 0.0)
    arc 85 86 (1961.1800968515358 -1267.9969498591508 0.0)
    arc 86 87 (1919.5296545498118 -1191.158857878033 0.0)
    arc 87 88 (1884.7475669989904 -1110.9774503770732 0.0)
    arc 88 89 (1857.099529408497 -1028.0652212391312 0.0)
    arc 89 90 (1836.7967410379229 -943.0555246886333 0.0)
    arc 90 91 (1823.9942918771997 -856.5977371925666 0.0)
    arc 91 92 (1818.7899779371598 -769.3522969699311 0.0)
    arc 92 93 (1821.223554200313 -681.9856590021149 0.0)
    arc 93 94 (1831.276430938427 -595.165204082112 0.0)
    arc 94 95 (1848.8718157167082 -509.55414079159914 0.0)
    arc 95 96 (1873.8752999998214 -425.8064393489203 0.0)
    arc 96 97 (1906.0958858787649 -344.56183602755755 0.0)
    arc 97 98 (1945.2874450755733 -266.4409463055945 0.0)
    arc 98 99 (1991.15059908074 -192.04052407610493 0.0)
    arc 99 100 (2043.3350060612597 -121.92890313264525 0.0)
    arc 100 101 (2101.4420370699445 -56.64165575167681 0.0)
    arc 101 102 (2165.0278211128416 3.322498464638784 0.0)
    arc 102 103 (2233.6066358139415 57.505502233534116 0.0)
    arc 103 104 (2306.6546177763885 105.49345962329971 0.0)
    arc 104 105 (2383.6137642972903 146.91979774293486 0.0)
    arc 105 106 (2463.896195867628 181.4680669381073 0.0)
    arc 106 107 (2546.888646896655 208.87435810314037 0.0)
    arc 107 108 (2631.9571503568127 228.92931864354114 0.0)
    arc 108 109 (2718.4518805638536 241.4797516894264 0.0)
    arc 109 110 (2805.7121170988844 246.42978634369638 0.0)
    arc 110 111 (2893.07129195368 243.74161002560209 0.0)
    arc 111 112 (2979.862081344862 233.43575731544342 0.0)
    arc 112 113 (3065.421503301329 215.5909530939548 0.0)
    arc 113 114 (3149.0959820852304 190.34351117461392 0.0)
    arc 114 115 (3230.246340760116 157.8862930226337 0.0)
    arc 115 116 (3308.2526837687847 118.46723451482512 0.0)
    arc 116 117 (3382.5191322235196 72.38745199419941 0.0)
    arc 117 118 (3452.478375736565 19.99894208686942 0.0)
    arc 118 119 (3517.596006020055 -38.29810714798123 0.0)
    arc 119 120 (3577.374599151687 -102.05837319534612 0.0)
    arc 120 121 (3631.357515322305 -170.79480083705585 0.0)
    arc 121 122 (3679.132387039694 -243.98232269437085 0.0)
    arc 122 123 (3720.3342691427088 -321.0618701398339 0.0)
    arc 123 124 (3754.6484265632457 -401.4446439396131 0.0)
    arc 124 125 (3781.8127385407633 -484.5166120035526 0.0)
    arc 125 126 (3801.619700923901 -569.6431998852534 0.0)
    arc 126 127 (3813.918011263926 -656.1741382021835 0.0)
    arc 127 128 (3818.613724591705 -743.4484299470685 0.0)
    arc 128 129 (3815.6709710493924 -830.799399746019 0.0)
    arc 129 130 (3805.112229894956 -917.5597864928609 0.0)
    arc 130 131 (3787.0181577864587 -1003.0668404577848 0.0)
    arc 131 132 (3761.5269726578053 -1086.667385934264 0.0)
    arc 132 133 (3728.8333978924447 -1167.7228107514206 0.0)
    arc 133 134 (3689.187174860311 -1245.6139445377144 0.0)
    arc 134 135 (3642.891155180533 -1319.745788471597 0.0)
    arc 135 136 (3590.29898728282 -1389.5520603892887 0.0)
    arc 136 137 (3536.5528656173133 -1458.4772309455877 0.0)
    arc 137 138 (3488.967744074747 -1531.7882664791769 0.0)
    arc 138 139 (3447.965672257193 -1608.9742874278961 0.0)
    arc 139 140 (3413.8598589116114 -1689.4456812226126 0.0)
    arc 140 141 (3386.9108332890487 -1772.5877388181666 0.0)
    arc 141 142 (3367.3244550003214 -1857.765350364622 0.0)
    arc 142 143 (3355.2503414849725 -1944.3278567172365 0.0)
    arc 143 144 (3350.7807251058343 -2031.6140197251918 0.0)
    arc 144 145 (3353.9497485996876 -2118.95707333178 0.0)
    arc 145 146 (3364.733204265955 -2205.6898169014476 0.0)
    arc 146 147 (3383.048718885738 -2291.1497118665156 0.0)
    arc 147 148 (3408.7563829586215 -2374.6839427610644 0.0)
    arc 148 149 (3441.659819450602 -2455.654403981476 0.0)
    arc 149 150 (3481.5076838891327 -2533.4425741805267 0.0)
);


    toleranceCheck  0.01;
}

mergeFaces false;

mergeTol 0.01;


// ************************************************************************* //
